Version 4
SHEET 1 880 680
WIRE 112 -144 16 -144
WIRE 384 -144 176 -144
WIRE 16 32 16 -144
WIRE 16 32 -112 32
WIRE 96 32 96 -32
WIRE 96 32 16 32
WIRE 208 32 208 -32
WIRE 208 32 160 32
WIRE 384 32 384 -144
WIRE 384 32 208 32
WIRE 96 96 -112 96
WIRE 608 96 320 96
WIRE 736 96 608 96
WIRE -112 160 -112 96
WIRE 16 160 16 32
WIRE 96 160 16 160
WIRE 384 160 384 32
WIRE 384 160 320 160
WIRE -528 224 -576 224
WIRE -384 224 -432 224
WIRE -224 224 -272 224
WIRE -48 224 -160 224
WIRE 96 224 -48 224
WIRE 432 224 320 224
WIRE 496 224 496 160
WIRE 496 224 448 224
WIRE 608 224 608 96
WIRE 608 224 496 224
WIRE -48 256 -48 224
WIRE -576 288 -576 224
WIRE -432 288 -432 224
WIRE -432 288 -464 288
WIRE -272 288 -272 224
WIRE -272 288 -320 288
WIRE -160 288 -160 224
WIRE 96 288 64 288
WIRE 368 288 320 288
WIRE -576 336 -576 288
WIRE -576 336 -624 336
WIRE -576 352 -576 336
WIRE -432 352 -432 288
WIRE -272 352 -272 288
WIRE 64 384 64 288
WIRE 608 384 608 224
WIRE 608 384 64 384
WIRE -432 416 -576 416
WIRE -272 416 -432 416
WIRE 16 416 16 160
WIRE 432 416 432 224
WIRE 432 416 16 416
FLAG 368 352 0
FLAG 736 176 0
FLAG -112 160 0
FLAG -432 416 0
FLAG -624 336 o/p_sine_wave
FLAG -48 256 o/p_sq_wave
SYMBOL Misc\\NE555 208 192 R0
SYMATTR InstName U1
SYMBOL cap 352 288 R0
SYMATTR InstName C1
SYMATTR Value 10n
SYMBOL cap -128 32 R0
SYMATTR InstName C2
SYMATTR Value 10n
SYMBOL pot 112 -16 R270
WINDOW 0 53 28 VRight 2
WINDOW 39 76 -65 VRight 2
SYMATTR InstName X1
SYMATTR SpiceLine R=100k, Val=0.362
SYMBOL pot 400 176 R270
WINDOW 0 62 21 VRight 2
WINDOW 39 43 -52 VRight 2
SYMATTR InstName X2
SYMATTR SpiceLine R=100k, Val=0.362
SYMBOL voltage 736 80 R0
WINDOW 123 0 0 Left 0
WINDOW 39 0 0 Left 0
SYMATTR InstName V1
SYMATTR Value 4.2
SYMBOL pot -176 272 R90
WINDOW 0 -115 35 Left 2
WINDOW 39 -283 69 Left 2
SYMATTR InstName X3
SYMATTR SpiceLine R=20Meg, Val=0.397
SYMBOL pot -336 272 R90
WINDOW 0 -130 46 Left 2
WINDOW 39 -300 75 Left 2
SYMATTR InstName X4
SYMATTR SpiceLine R=20Meg, Val=0.397
SYMBOL pot -480 272 R90
WINDOW 0 -122 27 Left 2
WINDOW 39 -293 57 Left 2
SYMATTR InstName X5
SYMATTR SpiceLine R=20Meg, Val=0.397
SYMBOL cap -288 352 R0
SYMATTR InstName C3
SYMATTR Value 10p
SYMBOL cap -448 352 R0
SYMATTR InstName C4
SYMATTR Value 10p
SYMBOL cap -592 352 R0
SYMATTR InstName C5
SYMATTR Value 10p
SYMBOL schottky 176 -160 R90
WINDOW 0 0 32 VBottom 2
WINDOW 3 -27 -65 VTop 2
SYMATTR InstName D1
SYMATTR Value RB541SM-40
SYMATTR Description Diode
SYMATTR Type diode
TEXT -464 -168 Left 2 !.tran 0 200u 0u
